data/pnnl300.m
function mpc = AfterDynamicSim_sps_96
%AFTERDYNAMICSIM_SPS_96

%% MATPOWER Case Format : Version 2
mpc.version = '2';

%%-----  Power Flow Data  -----%%
%% system MVA base
mpc.baseMVA = 100;

%% bus data
%	bus_i	type	Pd	Qd	Gs	Bs	area	Vm	Va	baseKV	zone	Vmax	Vmin
mpc.bus = [
	1	1	89.3771338	48.6616265	0	0	1	1.02223	177.7932	115	1	1.1	0.9;
	2	1	55.6872727	14.9160832	0	0	1	1.0302	179.9474	115	1	1.1	0.9;
	3	1	19.7070768	0	0	0	1	0.98418	177.9642	230	1	1.1	0.9;
	4	1	0	0	0	0	1	1.02085	176.705	345	1	1.1	0.9;
	5	1	350.177769	128.959001	0	0	1	1.01205	176.4852	115	1	1.1	0.9;
	6	1	119.036575	40.6708464	0	0	1	1.02406	179.0129	115	1	1.1	0.9;
	7	1	0	0	0	0	1	0.98031	177.3622	230	1	1.1	0.9;
	8	1	57.927158	13.9819629	0	0	1	1.013	175.1222	115	1	1.1	0.9;
	9	1	95.48417	42.7685664	0	0	1	0.99853	174.9194	115	1	1.1	0.9;
	10	1	146.948333	32.7657772	0	0	1	1.01387	173.2594	230	1	1.1	0.9;
	11	1	82.7524575	20.9376478	0	0	1	1.00277	174.7878	115	1	1.1	0.9;
	12	1	0	0	0	0	1	0.98865	176.9021	230	1	1.1	0.9;
	13	1	57.7422085	9.95507608	0	0	1	0.99343	171.7586	115	1	1.1	0.9;
	14	1	160.574272	60.2159767	0	0	1	0.99969	169.0578	115	1	1.1	0.9;
	15	1	127.093441	23.0711591	0	0	1	1.0348	166.4382	115	1	1.1	0.9;
	16	1	0	0	0	0	1	1.03321	171.9029	345	1	1.1	0.9;
	17	1	563.170389	220.849871	0	0	1	1.06622	162.4767	115	1	1.1	0.9;
	19	1	0	0	0	0	1	0.97697	173.4985	230	1	1.1	0.9;
	20	1	591.52295	119.297931	0	0	1	0.99542	169.8314	115	1	1.1	0.9;
	21	1	76.5402417	0.994575416	0	0	1	0.96948	173.8377	230	1	1.1	0.9;
	22	1	80.5890714	22.882719	0	0	1	0.99149	170.479	115	1	1.1	0.9;
	23	1	20.9790686	6.99304	0	0	1	1.04897	176.9008	115	1	1.1	0.9;
	24	1	0	0	0	0	1	1.00297	178.8884	230	1	1.1	0.9;
	25	1	44.9160834	11.9777702	0	0	1	1.02152	174.3452	115	1	1.1	0.9;
	26	1	27.9087815	8.97046751	0	0	1	0.9956	171.0579	115	1	1.1	0.9;
	27	1	68.6971083	12.9432575	0	0	1	0.97098	167.69	115	1	1.1	0.9;
	33	1	55.0090611	6.0011991	0	0	1	1.02505	165.5961	115	1	1.1	0.9;
	34	1	0	0	0	0	1	1.04655	169.356	345	1	1.1	0.9;
	35	1	0	0	0	0	1	0.99403	156.5801	115	1	1.1	0.9;
	36	1	0	0	0	0	1	1.01893	159.3425	230	1	1.1	0.9;
	37	1	84.7495597	31.9059021	0	0	1	1.01813	166.4583	115	1	1.1	0.9;
	38	1	154.960339	17.9956687	0	0	1	1.02062	165.1194	115	1	1.1	0.9;
	39	1	0	0	0	0	1	1.05811	171.5174	345	1	1.1	0.9;
	40	1	45.9771046	-20.9895583	0	0	1	1.02162	164.8788	115	1	1.1	0.9;
	41	1	85.8822079	0	0	0	1	1.02855	167.1586	115	1	1.1	0.9;
	42	1	0	0	0	0	1	1.05049	169.8023	345	1	1.1	0.9;
	43	1	39.2291582	9.05303536	0	0	1	1.00736	161.4826	115	1	1.1	0.9;
	44	1	197.003842	29.2984031	0	0	1	1.02056	161.304	115	1	1.1	0.9;
	45	1	0	0	0	0	1	1.03569	163.9815	230	1	1.1	0.9;
	46	1	0	0	0	0	1	1.0461	166.7618	345	1	1.1	0.9;
	47	1	58.5791433	11.9178458	0	0	1	0.99417	156.5474	115	1	1.1	0.9;
	48	1	41.0566815	19.0262653	0	0	1	1.0036	161.7135	115	1	1.1	0.9;
	49	1	89.7129513	25.3540957	0	0	1	1.03009	175.9327	115	1	1.1	0.9;
	51	1	-4.94653619	4.94653619	0	0	1	1.01818	170.0445	115	1	1.1	0.9;
	52	1	60.771746	27.8950804	0	0	1	0.99648	166.3422	115	1	1.1	0.9;
	53	1	69.4102048	3.01739905	0	0	1	1.00297	160.7358	115	1	1.1	0.9;
	54	1	10.0615819	1.00677088	0	0	1	1.01263	162.1973	115	1	1.1	0.9;
	55	1	22.0239828	10.0115571	0	0	1	1.01769	166.0114	115	1	1.1	0.9;
	57	1	98.16787	20.0339682	0	0	1	1.03522	169.5186	115	1	1.1	0.9;
	58	1	13.9930432	0.998799339	0	0	1	0.99129	170.7393	115	1	1.1	0.9;
	59	1	217.859325	105.930677	0	0	1	0.9783	171.1949	115	1	1.1	0.9;
	60	1	0	0	0	0	1	1.03725	167.6899	230	1	1.1	0.9;
	61	1	226.892628	109.946582	0	0	1	0.99036	172.8959	115	1	1.1	0.9;
	62	1	0	0	0	0	1	1.01884	173.8617	230	1	1.1	0.9;
	63	1	70.1812234	30.0779249	0	0	1	0.95993	157.9603	115	1	1.1	0.9;
	64	1	0	0	0	0	1	0.95075	162.4498	230	1	1.1	0.9;
	69	1	0	0	0	0	1	1.00857	156.9277	115	1	1.1	0.9;
	70	1	56.6085004	20.2171788	0	0	1	1.02838	147.0968	115	1	1.1	0.9;
	71	1	117.238644	38.4056994	0	150	1	1.05311	151.7022	115	1	1.1	0.9;
	72	1	57.4475712	19.1488573	0	0	1	0.9993	154.8016	115	1	1.1	0.9;
	73	1	226.034287	71.6449754	0	0	1	1.00249	155.8014	115	1	1.1	0.9;
	74	1	0	0	0	0	1	1.01784	159.0577	230	1	1.1	0.9;
	76	1	209.625275	107.835116	0	0	1	0.98046	155.7789	115	1	1.1	0.9;
	77	1	74.4656868	28.1759083	0	0	1	1.0004	157.6246	115	1	1.1	0.9;
	78	1	0	0	0	0	1	1.00543	158.5532	115	1	1.1	0.9;
	79	1	48.303533	14.0882803	0	0	1	1.00229	157.4359	115	1	1.1	0.9;
	80	1	28.1040106	7.02525321	0	0	1	0.99955	158.22	115	1	1.1	0.9;
	81	1	0	0	0	0	1	1.04567	163.1877	345	1	1.1	0.9;
	84	1	36.9977596	12.9989635	0	0	1	1.02485	165.8875	115	1	1.1	0.9;
	85	1	0	0	0	0	1	0.99008	159.4459	230	1	1.1	0.9;
	86	1	0	0	0	0	1	0.99378	162.2119	230	1	1.1	0.9;
	87	1	0	0	0	0	1	0.99405	166.8919	230	1	1.1	0.9;
	88	1	0	0	0	0	1	1.03178	160.786	230	1	1.1	0.9;
	89	1	44.2340408	0	0	0	1	1.03175	165.3588	115	1	1.1	0.9;
	90	1	65.9181618	0	0	0	1	1.02613	166.0803	115	1	1.1	0.9;
	91	1	17.4160849	0	0	0	1	1.05261	167.2406	115	1	1.1	0.9;
	92	1	15.7992522	0	0	0	1	1.05191	171.7013	115	1	1.1	0.9;
	94	1	60.3214935	0	0	0	1	0.99224	165.6523	115	1	1.1	0.9;
	97	1	39.9508746	0	0	0	1	1.01897	163.557	115	1	1.1	0.9;
	98	1	66.6929972	0	0	0	1	0.99994	162.2832	115	1	1.1	0.9;
	99	1	83.5975616	0	0	0	1	0.99023	157.3829	115	1	1.1	0.9;
	100	1	0	0	0	0	1	1.00641	162.3453	115	1	1.1	0.9;
	102	1	77.8723025	0	0	0	1	1.00116	161.4987	115	1	1.1	0.9;
	103	1	32.0436965	0	0	0	1	1.0298	165.4839	115	1	1.1	0.9;
	104	1	8.61546042	0	0	0	1	0.9968	159.7183	115	1	1.1	0.9;
	105	1	49.6576636	0	0	0	1	1.02339	164.8138	115	1	1.1	0.9;
	107	1	4.6052892	0	0	0	1	1.01076	161.7316	115	1	1.1	0.9;
	108	1	112.216576	0	0	0	1	0.99067	157.4084	115	1	1.1	0.9;
	109	1	30.769949	0	0	0	1	0.98143	152.8804	115	1	1.1	0.9;
	110	1	63.1387893	0	0	0	1	0.97757	153.7772	115	1	1.1	0.9;
	112	1	19.5594236	0	0	0	1	0.97981	151.5655	115	1	1.1	0.9;
	113	1	26.3931607	0	0	0	1	0.98337	154.1347	115	1	1.1	0.9;
	114	1	18.1553405	0	0	0	1	0.98219	151.8484	115	1	1.1	0.9;
	115	1	0	0	0	0	2	0.94276	119.5144	115	2	1.1	0.9;
	116	1	0	0	0	0	2	0.90067	127.7836	115	2	1.1	0.9;
	117	1	0	0	0	460	2	0.99973	121.8587	115	2	1.1	0.9;
	118	1	6.10357181	281.328822	0	0	2	0.99362	121.7635	115	2	1.1	0.9;
	119	1	91.935779	31.530976	0	0	2	0.98344	120.4385	115	2	1.1	0.9;
	120	1	-95.0021185	38.1907129	0	120	2	1.00521	122.9813	115	2	1.1	0.9;
	121	1	223.674338	22.9948001	0	0	2	0.95299	117.4544	115	2	1.1	0.9;
	122	1	93.4060245	4.8110658	0	0	2	0.94065	121.0732	115	2	1.1	0.9;
	123	1	28.0847781	0.504566067	0	0	2	0.88874	127.6105	115	2	1.1	0.9;
	124	1	93.6245035	20.0872028	0	0	2	0.89176	127.7836	115	2	1.1	0.9;
	125	1	447.531248	71.893657	0	0	2	0.88512	130.6223	115	2	1.1	0.9;
	126	1	36.6673413	3.22952822	0	240	2	0.90686	137.2692	115	2	1.1	0.9;
	127	1	342.095556	33.2394887	0	0	2	0.92242	145.9384	230	2	1.1	0.9;
	128	1	0	0	0	0	2	0.94282	155.1231	230	2	1.1	0.9;
	129	1	0	0	0	0	2	0.93646	155.2399	230	2	1.1	0.9;
	130	1	0	0	0	0	2	0.98501	172.8043	230	2	1.1	0.9;
	131	1	0	0	0	0	2	0.96516	176.2007	230	2	1.1	0.9;
	132	1	0	0	0	0	2	0.96237	169.1801	230	2	1.1	0.9;
	133	1	0	0	0	0	2	0.95186	153.5813	230	2	1.1	0.9;
	134	1	0	0	0	0	2	0.96958	149.4951	230	2	1.1	0.9;
	135	1	158.419313	38.9494239	0	0	2	0.97681	151.2429	230	2	1.1	0.9;
	136	1	53.5203774	17.6454802	0	0	2	1.02847	160.3512	230	2	1.1	0.9;
	137	1	265.289198	96.7672121	0	0	2	1.02218	156.2101	230	2	1.1	0.9;
	138	1	804.931741	131.638158	0	0	2	1.03328	146.8737	230	2	1.1	0.9;
	139	1	586.053784	82.0472097	0	0	2	1.00036	156.414	115	2	1.1	0.9;
	140	1	378.310886	111.920738	0	0	2	1.02369	155.9189	230	2	1.1	0.9;
	141	1	143.005014	57.2019969	0	0	2	1.04126	161.5475	230	2	1.1	0.9;
	142	1	55.6352972	24.1253793	0	0	2	1.00469	162.4383	230	2	1.1	0.9;
	143	1	89.5060916	35.5025191	0	0	2	1.04355	171.9337	230	2	1.1	0.9;
	144	1	0	0	0	0	2	1.01767	173.7195	230	2	1.1	0.9;
	145	1	23.8835363	13.9317231	0	0	2	1.00846	165.7649	230	2	1.1	0.9;
	146	1	0	0	0	0	2	1.04983	168.463	230	2	1.1	0.9;
	147	1	0	0	0	0	2	1.05263	172.2381	230	2	1.1	0.9;
	148	1	62.9493407	24.9801198	0	120	2	1.09754	167.7365	115	2	1.1	0.9;
	149	1	0	0	0	0	2	1.07259	172.6809	230	2	1.1	0.9;
	150	1	0	0	0	0	2	0.96452	176.3868	230	2	1.1	0.9;
	151	1	0	0	0	0	2	0.97496	171.166	230	2	1.1	0.9;
	152	1	16.9888361	8.99305489	0	0	2	1.05552	168.738	230	2	1.1	0.9;
	153	1	0	0	0	0	2	1.0434	170.3009	230	2	1.1	0.9;
	154	1	70.0133561	5.00015489	0	84.5	2	1.06796	156.4837	115	2	1.1	0.9;
	155	1	198.841285	49.710318	0	0	2	1.01271	166.5887	230	2	1.1	0.9;
	156	1	75.1572625	50.1045317	0	0	2	0.96436	165.0171	115	2	1.1	0.9;
	157	1	49.9721813	-9.832383	0	0	2	0.93766	123.7338	230	2	1.1	0.9;
	158	1	0	0	0	0	2	0.89328	133.5931	230	2	1.1	0.9;
	159	1	13.6377984	6.81982369	0	0	2	0.94879	122.8907	230	2	1.1	0.9;
	160	1	0	0	0	0	2	0.87908	130.4899	230	2	1.1	0.9;
	161	1	34.9362616	14.9717818	0	0	2	1.03432	168.6866	230	2	1.1	0.9;
	162	1	83.8348701	23.6706564	0	0	2	0.98126	179.1504	230	2	1.1	0.9;
	163	1	0	0.389384635	0	0	2	1.01827	161.5011	230	2	1.1	0.9;
	164	1	0	0	0	-212	2	0.97246	169.4963	230	2	1.1	0.9;
	165	1	0	0	0	0	2	0.99343	-172.4723	230	2	1.1	0.9;
	166	1	0	0	0	-103	2	0.99315	-168.2984	230	2	1.1	0.9;
	167	1	276.627918	88.2731354	0	0	2	0.9103	153.7265	230	2	1.1	0.9;
	168	1	0	0	0	0	2	0.94287	155.083	230	2	1.1	0.9;
	169	1	0	0	0	0	2	0.92724	152.5031	230	2	1.1	0.9;
	170	1	480.3181	99.6915273	0	0	2	0.91232	166.6693	115	2	1.1	0.9;
	171	1	714.504553	272.382187	0	0	2	0.93404	148.9802	115	2	1.1	0.9;
	172	1	26.1537591	0	0	0	2	1.01547	155.1646	115	2	1.1	0.9;
	173	1	160.64399	42.2485901	0	53	2	0.97266	150.9574	115	2	1.1	0.9;
	174	1	0	0	0	0	2	1.05237	159.04	115	2	1.1	0.9;
	175	1	173.341481	81.7450327	0	0	2	0.96617	158.1591	115	2	1.1	0.9;
	176	1	4.99799076	3.99926693	0	0	2	1.05193	171.506	115	2	1.1	0.9;
	177	1	27.9802916	11.9912647	0	0	2	1.0072	167.6414	115	2	1.1	0.9;
	178	1	425.259516	172.729629	0	0	2	0.94678	160.1004	115	2	1.1	0.9;
	179	1	73.3598273	28.7483638	0	45	2	0.98054	157.3061	115	2	1.1	0.9;
	180	1	69.1398578	49.0451432	0	0	2	0.98204	163.1122	115	2	1.1	0.9;
	181	1	71.2981227	0	0	0	2	1.02707	155.7836	230	2	1.1	0.9;
	182	1	235.818631	87.1947803	0	0	2	1.0285	155.3907	230	2	1.1	0.9;
	183	1	39.9960447	3.99960891	0	0	2	0.98877	166.7236	115	2	1.1	0.9;
	184	1	130.096888	15.7864654	0	0	2	1.00339	151.1621	230	2	1.1	0.9;
	185	1	0	0	0	0	2	1.02851	153.9512	230	2	1.1	0.9;
	186	1	58.5744706	23.8019087	0	0	2	1.05008	159.7885	230	2	1.1	0.9;
	187	1	58.2607715	23.6750436	0	0	2	1.04624	158.7623	230	2	1.1	0.9;
	188	1	177.659097	42.4208829	0	0	2	1.03041	156.4917	230	2	1.1	0.9;
	189	1	7.01094787	2.00269368	0	0	3	1.00797	158.3757	66	3	1.1	0.9;
	190	1	0	0	0	-150	3	1.05505	164.6192	345	3	1.1	0.9;
	191	1	488.656767	52.9625148	0	0	3	1.04229	-167.8057	230	3	1.1	0.9;
	192	1	809.302013	72.8369866	0	0	3	0.9461	169.9722	230	3	1.1	0.9;
	193	1	0	0	0	0	3	1.01151	157.8704	66	3	1.1	0.9;
	194	1	0	0	0	0	3	1.05412	164.4635	345	3	1.1	0.9;
	195	1	0	0	0	0	3	1.04118	163.0412	345	3	1.1	0.9;
	196	1	9.99135236	2.99729955	0	0	3	0.97888	158.8529	115	3	1.1	0.9;
	197	1	43.0091131	14.003013	0	0	3	0.99673	160.5718	115	3	1.1	0.9;
	198	1	63.9908249	20.9969973	0	0	3	1.01483	164.0574	115	3	1.1	0.9;
	199	1	35.0108607	12.0036038	0	0	3	0.95783	158.6144	115	3	1.1	0.9;
	200	1	27.0527656	12.0237715	0	0	3	0.96054	158.9161	115	3	1.1	0.9;
	201	1	41.0851001	14.0289524	0	50	1	1.04949	155.1795	66	1	1.1	0.9;
	202	1	38.0020025	13.0006067	0	0	3	0.9959	158.8611	66	3	1.1	0.9;
	203	1	42.0039739	14.0013227	0	0	3	1.00587	162.0592	115	3	1.1	0.9;
	204	1	72.1347016	24.0452403	0	0	3	1.00958	158.078	66	3	1.1	0.9;
	205	1	0	-5.00639604	0	0	3	1.01182	157.6923	66	3	1.1	0.9;
	206	1	11.9034224	1.98356457	0	0	3	1.0087	154.7673	66	3	1.1	0.9;
	207	1	-20.7110254	-14.0048504	0	0	1	1.01671	153.9803	66	1	1.1	0.9;
	208	1	7.01126093	2.0027831	0	0	3	1.008	157.6323	66	3	1.1	0.9;
	209	1	38.085646	13.0296763	0	0	3	1.00831	158.7376	66	3	1.1	0.9;
	210	1	0	0	0	0	3	0.98358	160.2883	115	3	1.1	0.9;
	211	1	96.0823287	7.00630101	0	0	3	1.00801	160.8075	115	3	1.1	0.9;
	212	1	0	0	0	0	3	1.01846	161.6864	138	3	1.1	0.9;
	213	1	0	0	0	0	3	1.00976	174.5441	16.5	3	1.1	0.9;
	214	1	21.986206	15.9902362	0	0	3	0.99164	168.3193	138	3	1.1	0.9;
	215	1	46.984526	25.9914806	0	0	3	0.98708	165.2521	138	3	1.1	0.9;
	216	1	175.949847	104.969151	0	0	3	0.97507	162.8796	138	3	1.1	0.9;
	217	1	100.032056	75.0243131	0	0	3	1.02076	163.0578	138	3	1.1	0.9;
	218	1	131.036289	96.0255352	0	0	3	1.0067	162.6415	138	3	1.1	0.9;
	219	1	0	0	0	0	3	1.05462	163.9011	345	3	1.1	0.9;
	220	1	284.82507	99.9379591	0	0	3	1.00754	163.887	138	3	1.1	0.9;
	221	1	170.920432	69.9676446	0	0	3	0.99953	162.7953	138	3	1.1	0.9;
...
];

%% generator data
%	bus	Pg	Qg	Qmax	Qmin	Vg	mBase	status	Pmax	Pmin	Pc1	Pc2	Qc1min	Qc1max	Qc2min	Qc2max	ramp_agc	ramp_10	ramp_30	ramp_q	apf	mu_Pmax	mu_Pmin	mu_Qmax	mu_Qmin
mpc.gen = [
	10000	-4.182	10	10	-10	1.01516	25	1	-5	-5	0	0	0	0	0	0	0	0	0	0	0	0.0000	0.0000	0.0000	0.0000;
	10001	-4.165	20	20	-20	1.01622	25	1	-5	-5	0	0	0	0	0	0	0	0	0	0	0	0.0000	0.0000	0.0000	0.0000;
	10002	-9.117	20	20	-20	0.99755	27	1	-10	-10	0	0	0	0	0	0	0	0	0	0	0	0.0000	0.0000	0.0000	0.0000;
	10003	0.977	24.264	25	-25	0.95996	30	1	100	0	0	0	0	0	0	0	0	0	0	0	0	0.0000	0.0000	0.0000	0.0000;
	10004	1.349	13.652	35	12	0.98048	42	1	100	0	0	0	0	0	0	0	0	0	0	0	0	0.0000	0.0000	0.0000	0.0000;
	10005	402.384	91.874	240	-240	1.02495	835	1	475	0	0	0	0	0	0	0	0	0	0	0	0	0.0000	0.0000	0.0000	0.0000;
	10006	163.995	41.002	96	-11	1.05265	270	1	255	0	0	0	0	0	0	0	0	0	0	0	0	0.0000	0.0000	0.0000	0.0000;
	10007	303.642	28.592	153	-153	1.05194	410	1	390	0	0	0	0	0	0	0	0	0	0	0	0	0.0000	0.0000	0.0000	0.0000;
	10008	72.139	-13.194	56	-30	0.99993	125	1	168	0	0	0	0	0	0	0	0	0	0	0	0	0.0000	0.0000	0.0000	0.0000;
	10009	125.95	10.058	77	-24	0.99068	270	1	217	0	0	0	0	0	0	0	0	0	0	0	0	0.0000	0.0000	0.0000	0.0000;
	10010	0	0	1500	-500	1.08912	2845	0	2030	0	0	0	0	0	0	0	0	0	0	0	0	0.0000	0.0000	0.0000	0.0000;
	10011	0	0	120	-60	0.91117	410	0	340	0	0	0	0	0	0	0	0	0	0	0	0	0.0000	0.0000	0.0000	0.0000;
	10012	0	0	200	-25	0.90403	240	0	100	0	0	0	0	0	0	0	0	0	0	0	0	0.0000	0.0000	0.0000	0.0000;
	10013	-885.126	350	350	-125	1.05203	1187	1	-925.03	-925.03	0	0	0	0	0	0	0	0	0	0	0	0.0000	0.0000	0.0000	0.0000;
	10014	294.898	75	75	-50	1.0506	410	1	381	0	0	0	0	0	0	0	0	0	0	0	0	0.0000	0.0000	0.0000	0.0000;
	10015	726.753	24.879	300	-100	1.04358	911	1	796	0	0	0	0	0	0	0	0	0	0	0	0	0.0000	0.0000	0.0000	0.0000;
	10016	88.203	35	35	-15	1.05307	125	1	184	0	0	0	0	0	0	0	0	0	0	0	0	0.0000	0.0000	0.0000	0.0000;
	10017	230.844	-35.106	100	-50	1.05259	410	1	317	0	0	0	0	0	0	0	0	0	0	0	0	0.0000	0.0000	0.0000	0.0000;
	10018	112.073	48.446	50	-25	1.07264	270	1	203	0	0	0	0	0	0	0	0	0	0	0	0	0.0000	0.0000	0.0000	0.0000;
	10019	400.442	9.918	175	-50	1.05553	835	1	472	0	0	0	0	0	0	0	0	0	0	0	0	0.0000	0.0000	0.0000	0.0000;
	10020	229.931	-47.063	90	-50	1.04335	410	1	316	0	0	0	0	0	0	0	0	0	0	0	0	0.0000	0.0000	0.0000	0.0000;
	10021	0.833	10.32	15	-10	0.96437	25	1	100	0	0	0	0	0	0	0	0	0	0	0	0	0.0000	0.0000	0.0000	0.0000;
	10022	218.954	67.605	90	-40	1.00364	410	1	305	0	0	0	0	0	0	0	0	0	0	0	0	0.0000	0.0000	0.0000	0.0000;
	10023	5.948	150	150	-50	0.94441	180	1	100	0	0	0	0	0	0	0	0	0	0	0	0	0.0000	0.0000	0.0000	0.0000;
	10024	241.816	44.594	90	-45	1.05198	410	1	328	0	0	0	0	0	0	0	0	0	0	0	0	0.0000	0.0000	0.0000	0.0000;
	10025	93.073	23.962	35	-15	1.00723	270	1	184	0	0	0	0	0	0	0	0	0	0	0	0	0.0000	0.0000	0.0000	0.0000;
	10026	214.012	80	80	-50	1.05094	410	1	300	0	0	0	0	0	0	0	0	0	0	0	0	0.0000	0.0000	0.0000	0.0000;
	10027	1250.833	400	400	-100	1.0643	1491	1	1300	0	0	0	0	0	0	0	0	0	0	0	0	0.0000	0.0000	0.0000	0.0000;
	10028	1251.71	400	400	-100	1.06413	1517	1	1300	0	0	0	0	0	0	0	0	0	0	0	0	0.0000	0.0000	0.0000	0.0000;
	10029	502.214	8.883	300	-300	1.05506	835	1	575	0	0	0	0	0	0	0	0	0	0	0	0	0.0000	0.0000	0.0000	0.0000;
	10030	1904.307	628.305	1000	-1000	1.04295	2510	1	2073	0	0	0	0	0	0	0	0	0	0	0	0	0.0000	0.0000	0.0000	0.0000;
	10031	451.308	62.926	260	-260	1.0149	835	1	524	0	0	0	0	0	0	0	0	0	0	0	0	0.0000	0.0000	0.0000	0.0000;
	10032	288.654	44.793	150	-150	1.00981	512	1	372	0	0	0	0	0	0	0	0	0	0	0	0	0.0000	0.0000	0.0000	0.0000;
	10033	108.779	46.951	60	-60	1.00759	270	1	200	0	0	0	0	0	0	0	0	0	0	0	0	0.0000	0.0000	0.0000	0.0000;
	10034	477.213	125.911	320	-320	0.99967	835	1	550	0	0	0	0	0	0	0	0	0	0	0	0	0.0000	0.0000	0.0000	0.0000;
	10035	263.376	145.006	300	-300	1.0499	410	1	350	0	0	0	0	0	0	0	0	0	0	0	0	0.0000	0.0000	0.0000	0.0000;
	10036	319.659	254.744	300	-300	0.99991	512	1	403	0	0	0	0	0	0	0	0	0	0	0	0	0.0000	0.0000	0.0000	0.0000;
	10037	372.153	48.167	250	-250	1.03986	835	1	445	0	0	0	0	0	0	0	0	0	0	0	0	0.0000	0.0000	0.0000	0.0000;
	10038	316.649	142.804	500	-500	0.99987	512	1	400	0	0	0	0	0	0	0	0	0	0	0	0	0.0000	0.0000	0.0000	0.0000;
	10039	629.74	300	300	-300	1.01559	911	1	700	0	0	0	0	0	0	0	0	0	0	0	0	0.0000	0.0000	0.0000	0.0000;
	10040	263.36	160.576	200	-200	1.00984	410	1	350	0	0	0	0	0	0	0	0	0	0	0	0	0.0000	0.0000	0.0000	0.0000;
	10041	579.712	72.285	400	-400	1.00003	911	1	650	0	0	0	0	0	0	0	0	0	0	0	0	0.0000	0.0000	0.0000	0.0000;
	10042	604.542	-23.142	600	-600	1.05002	911	1	675.4	0	0	0	0	0	0	0	0	0	0	0	0	0.0000	0.0000	0.0000	0.0000;
	10043	183.358	50.438	100	40	0.99285	410	1	270	0	0	0	0	0	0	0	0	0	0	0	0	0.0000	0.0000	0.0000	0.0000;
	10044	92.784	50.586	80	40	1.0097	270	1	184	0	0	0	0	0	0	0	0	0	0	0	0	0.0000	0.0000	0.0000	0.0000;
	10045	495.051	173.356	210	-210	1.05044	835	1	567	0	0	0	0	0	0	0	0	0	0	0	0	0.0000	0.0000	0.0000	0.0000;
	10046	653.66	130.767	280	-280	1.05077	911	1	723	0	0	0	0	0	0	0	0	0	0	0	0	0.0000	0.0000	0.0000	0.0000;
	10047	1261.796	420	420	-420	1.02898	1537	1	1310	0	0	0	0	0	0	0	0	0	0	0	0	0.0000	0.0000	0.0000	0.0000;
	10048	247.761	66.142	100	-100	1.01427	410	1	334	0	0	0	0	0	0	0	0	0	0	0	0	0.0000	0.0000	0.0000	0.0000;
	10049	400.015	224	224	-224	1.05048	835	1	472	0	0	0	0	0	0	0	0	0	0	0	0	0.0000	0.0000	0.0000	0.0000;
	10050	357.849	334.838	350	0	1.05026	835	1	430	0	0	0	0	0	0	0	0	0	0	0	0	0.0000	0.0000	0.0000	0.0000;
	10051	198.739	11.375	120	0	1.05056	410	1	285	0	0	0	0	0	0	0	0	0	0	0	0	0.0000	0.0000	0.0000	0.0000;
	10052	437.991	118.82	224	-224	1.02884	835	1	510	0	0	0	0	0	0	0	0	0	0	0	0	0.0000	0.0000	0.0000	0.0000;
	10053	527.719	141.722	200	-200	1.05009	835	1	600	0	0	0	0	0	0	0	0	0	0	0	0	0.0000	0.0000	0.0000	0.0000;
	10054	41.138	34.698	42	0	1.01436	125	1	137	0	0	0	0	0	0	0	0	0	0	0	0	0.0000	0.0000	0.0000	0.0000;
	10055	487.38	0	0	0	1.05065	835	1	2399	0	0	0	0	0	0	0	0	0	0	0	0	0.0000	0.0000	0.0000	0.0000;
	10056	49.134	23.966	25	0	0.99668	125	1	145	0	0	0	0	0	0	0	0	0	0	0	0	0.0000	0.0000	0.0000	0.0000;
	10057	178.596	87.284	90	-90	1.02116	410	1	265	0	0	0	0	0	0	0	0	0	0	0	0	0.0000	0.0000	0.0000	0.0000;
	10058	427.746	123.639	150	-150	1.01436	835	1	500	0	0	0	0	0	0	0	0	0	0	0	0	0.0000	0.0000	0.0000	0.0000;
	10059	427.778	143.572	150	0	1.00161	835	1	500	0	0	0	0	0	0	0	0	0	0	0	0	0.0000	0.0000	0.0000	0.0000;
	10060	124.856	0	87	0	0.99752	270	1	216	0	0	0	0	0	0	0	0	0	0	0	0	0.0000	0.0000	0.0000	0.0000;
	10061	1346.627	522.177	600	-100	1.04958	1611	1	1392	0	0	0	0	0	0	0	0	0	0	0	0	0.0000	0.0000	0.0000	0.0000;
	10062	730.975	325	325	-125	1.05018	911	1	800	0	0	0	0	0	0	0	0	0	0	0	0	0.0000	0.0000	0.0000	0.0000;
	10063	583.97	166.643	300	-200	1.0146	911	1	653	0	0	0	0	0	0	0	0	0	0	0	0	0.0000	0.0000	0.0000	0.0000;
	10064	-3.391	2	2	-2	0.99968	25	1	-4.2	-4.2	0	0	0	0	0	0	0	0	0	0	0	0.0000	0.0000	0.0000	0.0000;
	10065	-31.673	14.867	17.35	-17.35	0.99992	125	1	-35.81	-35.81	0	0	0	0	0	0	0	0	0	0	0	0.0000	0.0000	0.0000	0.0000;
	10066	-22.346	10.873	12.83	-12.8	0.99993	125	1	-26.48	-26.48	0	0	0	0	0	0	0	0	0	0	0	0.0000	0.0000	0.0000	0.0000;
	10067	54.143	20.593	38	-38	0.99999	125	1	150	0	0	0	0	0	0	0	0	0	0	0	0	0.0000	0.0000	0.0000	0.0000;
	10068	8.813	4.073	6	-6	1.00213	25	1	108	0	0	0	0	0	0	0	0	0	0	0	0	0.0000	0.0000	0.0000	0.0000;
];

%% branch data
%	fbus	tbus	r	x	b	rateA	rateB	rateC	ratio	angle	status	angmin	angmax
mpc.branch = [
	1	5	0.001	0.00600007	0	756.99	984.08	984.09	0	0	1	-360	360;
	2	6	0.001	0.0090001	0	294.9	383.38	383.37	0	0	1	-360	360;
	2	8	0.006	0.0270003	0.054	672.44	874.17	874.17	0	0	1	-360	360;
	3	7	0	0.00300003	0	543.03	705.94	705.94	0	0	1	-360	360;
	3	19	0.008	0.0690008	0.139	400.15	520.2	520.2	0	0	1	-360	360;
	3	150	0.001	0.00700008	0	706.7	918.71	918.71	0	0	1	-360	360;
	4	16	0.002	0.0190002	1.12701	1200.04	1560.05	1560.05	0	0	1	-360	360;
	5	9	0.006	0.0290003	0.018	193.71	251.82	251.82	0	0	1	-360	360;
	7	12	0.001	0.0090001	0.07	362.29	470.98	470.98	0	0	1	-360	360;
	7	131	0.001	0.00700008	0.014	614.65	799.04	799.05	0	0	1	-360	360;
	8	11	0.013	0.0595007	0.033	262.38	341.09	341.09	0	0	1	-360	360;
	8	14	0.013	0.0420005	0.081	559.22	726.99	726.99	0	0	1	-360	360;
	9	11	0.006	0.0270003	0.013	162.09	210.72	210.72	0	0	1	-360	360;
	11	13	0.008	0.0340004	0.018	480.36	624.46	624.47	0	0	1	-360	360;
	12	21	0.002	0.0150002	0.118	794.77	1033.2	1033.2	0	0	1	-360	360;
	13	20	0.006	0.0340004	0.016	303.42	394.44	394.45	0	0	1	-360	360;
	14	15	0.014	0.0420005	0.097	696.53	905.49	905.49	0	0	1	-360	360;
	15	37	0.065	0.248003	0.121	146.69	190.7	190.7	0	0	1	-360	360;
	15	89	0.099	0.248003	0.035	85.59	111.26	111.27	0	0	1	-360	360;
	15	90	0.096	0.363004	0.048	85.35	110.95	110.96	0	0	1	-360	360;
	16	42	0.002	0.0220003	1.28001	808.78	1051.41	1051.41	0	0	1	-360	360;
	19	21	0.002	0.0180002	0.036	258.39	335.91	335.91	0	0	1	-360	360;
	19	87	0.013	0.0800009	0.151	376.94	490.02	490.02	0	0	1	-360	360;
	20	22	0.016	0.0330004	0.015	241.98	314.57	314.57	0	0	1	-360	360;
	20	27	0.069	0.186002	0.098	323.54	420.61	420.6	0	0	1	-360	360;
	21	24	0.004	0.0340004	0.28	373.69	485.8	485.8	0	0	1	-360	360;
	22	23	0.052	0.111001	0.05	388.72	505.33	505.34	0	0	1	-360	360;
	23	25	0.019	0.0390004	0.018	231.91	301.49	301.48	0	0	1	-360	360;
	24	319	0.007	0.0680008	0.134	208.98	271.67	271.67	0	0	1	-360	360;
	25	26	0.036	0.0710008	0.034	143.6	186.68	186.68	0	0	1	-360	360;
	26	27	0.045	0.120001	0.065	82.26	106.94	106.94	0	0	1	-360	360;
	26	320	0.043	0.130001	0.014	30	39	39	0	0	1	-360	360;
	33	38	0.0025	0.0120001	0.013	164.63	214.01	214.02	0	0	1	-360	360;
	33	40	0.006	0.0290003	0.02	81.79	106.32	106.33	0	0	1	-360	360;
	33	41	0.007	0.0430005	0.026	134.83	175.28	175.28	0	0	1	-360	360;
	34	42	0.001	0.00800009	0.042	202.68	263.49	263.48	0	0	1	-360	360;
	35	72	0.012	0.0600007	0.008	133.07	173	172.99	0	0	1	-360	360;
	35	76	0.006	0.0140002	0.002	185.71	241.42	241.42	0	0	1	-360	360;
	35	77	0.01	0.0290003	0.003	77.27	100.46	100.45	0	0	1	-360	360;
	36	88	0.004	0.0270003	0.043	357.03	464.15	464.14	0	0	1	-360	360;
	37	38	0.008	0.0470005	0.008	145.12	188.66	188.66	0	0	1	-360	360;
	37	40	0.022	0.0640007	0.007	73.35	95.35	95.35	0	0	1	-360	360;
	37	41	0.01	0.0360004	0.02	200.13	260.17	260.17	0	0	1	-360	360;
	37	49	0.017	0.0810009	0.048	359.55	467.41	467.41	0	0	1	-360	360;
	37	89	0.102	0.254003	0.033	57.65	74.94	74.94	0	0	1	-360	360;
	37	90	0.047	0.127001	0.016	96.75	125.77	125.78	0	0	1	-360	360;
	38	41	0.008	0.0370004	0.02	209.19	271.95	271.95	0	0	1	-360	360;
	38	43	0.032	0.087001	0.04	141.56	184.03	184.03	0	0	1	-360	360;
	39	42	0.0006	0.00640007	0.404	809.05	1051.77	1051.77	0	0	1	-360	360;
	40	48	0.026	0.154002	0.022	73.02	94.92	94.93	0	0	1	-360	360;
	41	49	0.065	0.191002	0.02	134.34	174.64	174.64	0	0	1	-360	360;
	41	51	0.031	0.089001	0.036	172.48	224.22	224.22	0	0	1	-360	360;
	42	46	0.002	0.0140002	0.80601	1176.14	1528.99	1528.98	0	0	1	-360	360;
	43	44	0.026	0.0720008	0.035	131.89	171.46	171.46	0	0	1	-360	360;
	43	48	0.095	0.262003	0.032	30	39	39	0	0	1	-360	360;
	43	53	0.013	0.0390004	0.016	71.18	92.53	92.53	0	0	1	-360	360;
	44	47	0.027	0.084001	0.039	218.06	283.47	283.48	0	0	1	-360	360;
	44	54	0.028	0.084001	0.037	102.49	133.24	133.24	0	0	1	-360	360;
	45	60	0.007	0.0410005	0.312	336.41	437.34	437.33	0	0	1	-360	360;
	45	74	0.009	0.0540006	0.411	731.95	951.54	951.54	0	0	1	-360	360;
	46	81	0.005	0.0420005	0.69001	579.94	753.93	753.92	0	0	1	-360	360;
	47	73	0.052	0.145002	0.073	105.31	136.9	136.9	0	0	1	-360	360;
	47	113	0.043	0.118001	0.013	43.78	56.91	56.91	0	0	1	-360	360;
	48	107	0.025	0.0620007	0.007	72.96	94.85	94.85	0	0	1	-360	360;
	49	51	0.031	0.0940011	0.043	174.26	226.54	226.54	0	0	1	-360	360;
	51	52	0.037	0.109001	0.049	114.87	149.33	149.33	0	0	1	-360	360;
	52	55	0.027	0.0800009	0.036	77.25	100.43	100.43	0	0	1	-360	360;
	53	54	0.025	0.0730008	0.035	91.85	119.4	119.4	0	0	1	-360	360;
	54	55	0.035	0.103001	0.047	119.98	155.97	155.97	0	0	1	-360	360;
	55	57	0.065	0.169002	0.082	143.84	186.99	186.99	0	0	1	-360	360;
	57	58	0.046	0.0800009	0.036	102.18	132.83	132.83	0	0	1	-360	360;
	57	63	0.159	0.537006	0.071	64.54	83.9	83.9	0	0	1	-360	360;
	58	59	0.009	0.0260003	0.005	99.4	129.22	129.22	0	0	1	-360	360;
	59	61	0.002	0.0130001	0.015	372.08	483.71	483.7	0	0	1	-360	360;
	60	62	0.009	0.0650007	0.48501	348.49	453.04	453.04	0	0	1	-360	360;
	62	64	0.016	0.105001	0.203	343.83	446.98	446.98	0	0	1	-360	360;
	62	144	0.001	0.00700008	0.013	295.77	384.51	384.5	0	0	1	-360	360;
	63	526	0.0265	0.172002	0.026	249.29	324.08	324.08	0	0	1	-360	360;
	69	79	0.051	0.157002	0.023	82.14	106.78	106.78	0	0	1	-360	360;
	69	211	0.051	0.232003	0.028	40.7	52.91	52.91	0	0	1	-360	360;
	70	71	0.032	0.100001	0.062	168.96	219.64	219.65	0	0	1	-360	360;
	70	528	0.02	0.123401	0.028	60.27	78.36	78.35	0	0	1	-360	360;
	71	72	0.036	0.131002	0.068	285.83	371.58	371.58	0	0	1	-360	360;
	71	73	0.034	0.0990011	0.047	185.84	241.6	241.59	0	0	1	-360	360;
	72	77	0.018	0.087001	0.011	95.99	124.78	124.79	0	0	1	-360	360;
	72	531	0.0256	0.193002	0	30	39	39	0	0	1	-360	360;
	73	76	0.021	0.0570007	0.03	190.07	247.09	247.09	0	0	1	-360	360;
	73	79	0.018	0.0520006	0.018	313.02	406.93	406.93	0	0	1	-360	360;
	74	88	0.004	0.0270003	0.05	339.61	441.49	441.49	0	0	1	-360	360;
	74	562	0.0286	0.201302	0.379	106.91	138.98	138.98	0	0	1	-360	360;
	76	77	0.016	0.0430005	0.004	122.13	158.77	158.77	0	0	1	-360	360;
	77	78	0.001	0.00600007	0.007	495.03	643.54	643.54	0	0	1	-360	360;
	77	80	0.014	0.0700008	0.038	81.55	106.01	106.02	0	0	1	-360	360;
	77	552	0.0891	0.267603	0.029	30	39	39	0	0	1	-360	360;
	77	609	0.0782	0.212702	0.022	57.2	74.36	74.36	0	0	1	-360	360;
	78	79	0.006	0.0220003	0.011	409.58	532.46	532.45	0	0	1	-360	360;
	78	84	0	0.0360004	0	694.72	903.14	903.14	0	0	1	-360	360;
	79	211	0.099	0.375004	0.051	30	39	39	0	0	1	-360	360;
	80	211	0.022	0.107001	0.058	148.68	193.28	193.28	0	0	1	-360	360;
	81	194	0.0035	0.0330004	0.53001	357	464.1	464.1	0	0	1	-360	360;
	81	195	0.0035	0.0330004	0.53001	458.48	596.02	596.02	0	0	1	-360	360;
	85	86	0.008	0.0640007	0.128	150.49	195.64	195.64	0	0	1	-360	360;
	86	87	0.012	0.0930011	0.183	195.01	253.51	253.51	0	0	1	-360	360;
	86	323	0.006	0.0480005	0.092	51.8	67.34	67.34	0	0	1	-360	360;
	89	91	0.047	0.119001	0.014	126.88	164.95	164.94	0	0	1	-360	360;
	90	92	0.032	0.174002	0.024	108.02	140.43	140.43	0	0	1	-360	360;
	91	94	0.1	0.253003	0.031	91.27	118.65	118.65	0	0	1	-360	360;
	91	97	0.022	0.0770009	0.039	167.85	218.2	218.21	0	0	1	-360	360;
	92	103	0.019	0.144002	0.017	139	180.7	180.7	0	0	1	-360	360;
	92	105	0.017	0.0920011	0.012	218.68	284.28	284.28	0	0	1	-360	360;
	94	97	0.278	0.427005	0.043	58.28	75.77	75.76	0	0	1	-360	360;
	97	100	0.022	0.0530006	0.007	68.12	88.55	88.56	0	0	1	-360	360;
	97	102	0.038	0.0920011	0.012	73.49	95.54	95.54	0	0	1	-360	360;
	97	103	0.048	0.122001	0.015	74.42	96.75	96.75	0	0	1	-360	360;
	98	100	0.024	0.0640007	0.007	62.32	81.01	81.02	0	0	1	-360	360;
	98	102	0.034	0.121001	0.015	30	39	39	0	0	1	-360	360;
	99	107	0.053	0.135002	0.017	82.88	107.74	107.74	0	0	1	-360	360;
	99	108	0.002	0.00400005	0.002	118.84	154.49	154.49	0	0	1	-360	360;
	99	109	0.045	0.354004	0.044	55.01	71.52	71.51	0	0	1	-360	360;
	99	110	0.05	0.174002	0.022	77.58	100.86	100.85	0	0	1	-360	360;
	100	102	0.016	0.0380004	0.004	70.35	91.46	91.46	0	0	1	-360	360;
	102	104	0.043	0.0640007	0.027	91.09	118.41	118.42	0	0	1	-360	360;
	103	105	0.019	0.0620007	0.008	160.84	209.09	209.09	0	0	1	-360	360;
	104	108	0.076	0.130001	0.044	67.92	88.29	88.3	0	0	1	-360	360;
	104	322	0.044	0.124001	0.015	30	39	39	0	0	1	-360	360;
	105	107	0.012	0.088001	0.011	131.08	170.4	170.4	0	0	1	-360	360;
	105	110	0.157	0.400005	0.047	76.81	99.86	99.85	0	0	1	-360	360;
	108	324	0.074	0.208002	0.026	48.88	63.54	63.54	0	0	1	-360	360;
	109	110	0.07	0.184002	0.021	30	39	39	0	0	1	-360	360;
	109	113	0.1	0.274003	0.031	30	39	39	0	0	1	-360	360;
	109	114	0.109	0.393005	0.036	30	39	39	0	0	1	-360	360;
	110	112	0.142	0.404005	0.05	30	39	39	0	0	1	-360	360;
	112	114	0.017	0.0420005	0.006	30	39	39	0	0	1	-360	360;
	115	122	0.0036	0.0199002	0.004	637.85	829.2	829.2	0	0	1	-360	360;
	116	120	0.002	0.1049	0.001	542.52	705.27	705.28	0	0	0	-360	360;
	117	118	0.0001	0.00180002	0.017	1895.76	2464.49	2464.49	0	0	1	-360	360;
	118	119	0	0.0271003	0	1894.4	2462.73	2462.72	0	0	1	-360	360;
	118	121	0.0022	0.291503	0	96.42	125.35	125.35	0	0	1	-360	360;
	118	1201	0	0.616307	0	76.05	98.86	98.87	0	0	1	-360	360;
	119	120	0	0.0339004	0	320.7	416.91	416.91	0	0	1	-360	360;
	119	121	0	0.0582007	0	1255.96	1632.75	1632.75	0	0	1	-360	360;
	120	1201	0	-0.0696992	0	73.75	95.88	95.88	0	0	1	-360	360;
	122	123	0.0808	0.2344	0.029	121.3	157.69	157.69	0	0	0	-360	360;
	122	125	0.0965	0.3669	0.054	121.65	158.15	158.15	0	0	0	-360	360;
	123	124	0.036	0.107601	0.117	321.54	418	418	0	0	1	-360	360;
	123	125	0.0476	0.141402	0.149	221.65	288.14	288.14	0	0	1	-360	360;
	125	126	0.0006	0.0197002	0	696.33	905.23	905.23	0	0	1	-360	360;
	127	128	0.0059	0.0577007	0.095	195.24	253.82	253.81	0	0	1	-360	360;
	127	134	0.0049	0.0336004	0.208	221.17	287.52	287.52	0	0	1	-360	360;
	127	168	0.0059	0.0577007	0.095	233.97	304.16	304.16	0	0	1	-360	360;
	128	130	0.0078	0.0773009	0.126	464.96	604.45	604.45	0	0	1	-360	360;
	128	133	0.0026	0.0193002	0.03	359.5	467.35	467.35	0	0	1	-360	360;
	129	130	0.0076	0.0752009	0.122	378.09	491.51	491.52	0	0	1	-360	360;
	129	133	0.0021	0.0186002	0.03	515.04	669.55	669.55	0	0	1	-360	360;
	130	132	0.0016	0.0164002	0.026	358.15	465.59	465.6	0	0	1	-360	360;
	130	151	0.0017	0.0165002	0.026	262.02	340.62	340.63	0	0	1	-360	360;
	130	167	0.0079	0.0793009	0.127	512.99	666.89	666.89	0	0	1	-360	360;
	130	168	0.0078	0.0784009	0.125	412.96	536.85	536.85	0	0	1	-360	360;
	133	137	0.0017	0.0117001	0.289	691.78	899.32	899.31	0	0	1	-360	360;
	133	168	0.0026	0.0193002	0.03	313.8	407.94	407.94	0	0	1	-360	360;
	133	169	0.0021	0.0186002	0.03	184.72	240.13	240.14	0	0	1	-360	360;
	134	135	0.0043	0.0293003	0.18	228.68	297.28	297.28	0	0	1	-360	360;
	134	184	0.0039	0.0381004	0.258	165.71	215.43	215.42	0	0	1	-360	360;
	135	136	0.0091	0.0623007	0.385	278.05	361.47	361.46	0	0	1	-360	360;
	136	137	0.0125	0.089001	0.54001	369.45	480.29	480.29	0	0	1	-360	360;
	136	152	0.0056	0.0390004	0.95301	672.87	874.73	874.73	0	0	1	-360	360;
	137	140	0.0015	0.0114001	0.284	519.3	675.08	675.09	0	0	1	-360	360;
	137	181	0.0005	0.00340004	0.021	1044.25	1357.53	1357.53	0	0	1	-360	360;
	137	186	0.0007	0.0151002	0.126	1651.31	2146.71	2146.7	0	0	1	-360	360;
	137	188	0.0005	0.00340004	0.021	737.11	958.25	958.24	0	0	1	-360	360;
	138	181	0.0004	0.0202002	0	1489.09	1935.82	1935.82	0	0	1	-360	360;
	138	188	0.0004	0.0202002	0	1766.78	2296.81	2296.81	0	0	1	-360	360;
	139	172	0.0562	0.224803	0.081	139.29	181.08	181.08	0	0	1	-360	360;
	140	141	0.012	0.083601	0.123	139.41	181.23	181.23	0	0	1	-360	360;
	140	142	0.0152	0.113201	0.68401	185.06	240.58	240.58	0	0	1	-360	360;
	140	145	0.0468	0.336904	0.51901	90.55	117.71	117.72	0	0	1	-360	360;
	140	146	0.043	0.303103	0.46301	106.73	138.75	138.75	0	0	1	-360	360;
	140	147	0.0489	0.349204	0.53801	313.25	407.23	407.23	0	0	1	-360	360;
	140	182	0.0013	0.0089001	0.119	260.68	338.88	338.88	0	0	1	-360	360;
	141	146	0.0291	0.226703	0.342	89.84	116.79	116.79	0	0	1	-360	360;
	142	143	0.006	0.0570006	0.76701	381.09	495.41	495.42	0	0	1	-360	360;
	143	145	0.0075	0.0773009	0.119	187.1	243.23	243.23	0	0	1	-360	360;
	143	149	0.0127	0.090901	0.135	133.01	172.91	172.91	0	0	1	-360	360;
	145	146	0.0085	0.0588007	0.087	239.45	311.28	311.29	0	0	1	-360	360;
	145	149	0.0218	0.151102	0.223	156.93	204.01	204.01	0	0	1	-360	360;
	146	147	0.0073	0.0504006	0.074	269.74	350.67	350.66	0	0	1	-360	360;
	148	178	0.0523	0.152602	0.074	169.08	219.8	219.8	0	0	1	-360	360;
	148	179	0.1371	0.391904	0.076	96.94	126.03	126.02	0	0	1	-360	360;
	152	153	0.0137	0.0957011	0.141	301.09	391.42	391.42	0	0	1	-360	360;
	153	161	0.0055	0.0288003	0.19	233.97	304.16	304.16	0	0	1	-360	360;
	154	156	0.1746	0.316104	0.04	116.33	151.23	151.23	0	0	1	-360	360;
	154	183	0.0804	0.305404	0.045	189.53	246.39	246.39	0	0	1	-360	360;
	155	161	0.011	0.0568006	0.388	275.91	358.68	358.68	0	0	1	-360	360;
	157	159	0.0008	0.00980011	0.069	1236.3	1607.19	1607.19	0	0	1	-360	360;
	158	159	0.0029	0.0285	0.19	478.38	621.89	621.89	0	0	0	-360	360;
	158	160	0.0066	0.0448005	0.277	190.95	248.24	248.24	0	0	1	-360	360;
	162	164	0.0024	0.0326004	0.236	813.08	1057.01	1057	0	0	1	-360	360;
	162	165	0.0018	0.0245003	1.66202	880.76	1144.99	1144.99	0	0	1	-360	360;
	163	164	0.0044	0.0514006	3.59704	631.95	821.54	821.54	0	0	1	-360	360;
	165	166	0.0002	0.0123001	0	869.61	1130.49	1130.49	0	0	1	-360	360;
...
];

% %% bus names
% mpc.bus_name = {
% 	'1           ';
% 	'2           ';
% 	'3           ';
% 	'4           ';
% 	'5           ';
% 	'6           ';
% 	'7           ';
% 	'8           ';
% 	'9           ';
% 	'10          ';
% 	'11          ';
% 	'12          ';
% 	'13          ';
% 	'14          ';
% 	'15          ';
% 	'16          ';
% 	'17          ';
% 	'19          ';
% 	'20          ';
% 	'21          ';
% 	'22          ';
% 	'23          ';
% 	'24          ';
% 	'25          ';
% 	'26          ';
% 	'27          ';
% 	'33          ';
% 	'34          ';
% 	'35          ';
% 	'36          ';
% 	'37          ';
% 	'38          ';
% 	'39          ';
% 	'40          ';
% 	'41          ';
% 	'42          ';
% 	'43          ';
% 	'44          ';
% 	'45          ';
% 	'46          ';
% 	'47          ';
% 	'48          ';
% 	'49          ';
% 	'51          ';
% 	'52          ';
% 	'53          ';
% 	'54          ';
% 	'55          ';
% 	'57          ';
% 	'58          ';
% 	'59          ';
% 	'60          ';
% 	'61          ';
% 	'62          ';
% 	'63          ';
% 	'64          ';
% 	'69          ';
% 	'70          ';
% 	'71          ';
% 	'72          ';
% 	'73          ';
% 	'74          ';
% 	'76          ';
% 	'77          ';
% 	'78          ';
% 	'79          ';
% 	'80          ';
% 	'81          ';
% 	'84          ';
% 	'85          ';
% 	'86          ';
% 	'87          ';
% 	'88          ';
% 	'89          ';
% 	'90          ';
% 	'91          ';
% 	'92          ';
% 	'94          ';
% 	'97          ';
% 	'98          ';
% 	'99          ';
% 	'100         ';
% 	'102         ';
% 	'103         ';
% 	'104         ';
% 	'105         ';
% 	'107         ';
% 	'108         ';
% 	'109         ';
% 	'110         ';
% 	'112         ';
% 	'113         ';
% 	'114         ';
% 	'115         ';
% 	'116         ';
% 	'117         ';
% 	'118         ';
% 	'119         ';
% 	'120         ';
% 	'121         ';
% 	'122         ';
% 	'123         ';
% 	'124         ';
% 	'125         ';
% 	'126         ';
% 	'127         ';
% 	'128         ';
% 	'129         ';
% 	'130         ';
% 	'131         ';
% 	'132         ';
% 	'133         ';
% 	'134         ';
% 	'135         ';
% 	'136         ';
% 	'137         ';
% 	'138         ';
% 	'139         ';
% 	'140         ';
% 	'141         ';
% 	'142         ';
% 	'143         ';
% 	'144         ';
% 	'145         ';
% 	'146         ';
% 	'147         ';
% 	'148         ';
% 	'149         ';
% 	'150         ';
% 	'151         ';
% 	'152         ';
% 	'153         ';
% 	'154         ';
% 	'155         ';
% 	'156         ';
% 	'157         ';
% 	'158         ';
% 	'159         ';
% 	'160         ';
% 	'161         ';
% 	'162         ';
% 	'163         ';
% 	'164         ';
% 	'165         ';
% 	'166         ';
% 	'167         ';
% 	'168         ';
% 	'169         ';
% 	'170         ';
% 	'171         ';
% 	'172         ';
% 	'173         ';
% 	'174         ';
% 	'175         ';
% 	'176         ';
% 	'177         ';
% 	'178         ';
% 	'179         ';
% 	'180         ';
% 	'181         ';
% 	'182         ';
% 	'183         ';
% 	'184         ';
% 	'185         ';
% 	'186         ';
% 	'187         ';
% 	'188         ';
% 	'189         ';
% 	'190         ';
% 	'191         ';
% 	'192         ';
% 	'192         ';
% 	'194         ';
% 	'195         ';
% 	'196         ';
% 	'197         ';
% 	'198         ';
% 	'199         ';
% 	'200         ';
% 	'201         ';
% 	'202         ';
% 	'203         ';
% 	'204         ';
% 	'205         ';
% 	'206         ';
% 	'207         ';
% 	'208         ';
% 	'209         ';
% 	'210         ';
% 	'211         ';
% 	'212         ';
% 	'213         ';
% 	'214         ';
% 	'215         ';
% 	'216         ';
% 	'217         ';
% 	'218         ';
% 	'219         ';
% 	'220         ';
% 	'221         ';
% 	'222         ';
% 	'223         ';
% 	'224         ';
% 	'225         ';
% 	'226         ';
% 	'227         ';
% 	'228         ';
% 	'229         ';
% 	'230         ';
% 	'231         ';
% 	'232         ';
% 	'233         ';
% 	'234         ';
% 	'235         ';
% 	'236         ';
% 	'237         ';
% 	'238         ';
% 	'239         ';
% 	'240         ';
% 	'241         ';
% 	'242         ';
% 	'243         ';
% 	'244         ';
% 	'245         ';
% 	'246         ';
% 	'247         ';
% 	'248         ';
% 	'249         ';
% 	'250         ';
% 	'281         ';
% 	'319         ';
% 	'320         ';
% 	'322         ';
% 	'323         ';
% 	'324         ';
% 	'526         ';
% 	'528         ';
% 	'531         ';
% 	'552         ';
% 	'562         ';
% 	'609         ';
% 	'664         ';
% 	'1190        ';
% 	'1200        ';
% 	'1201        ';
% 	'2040        ';
% 	'7001        ';
% 	'7002        ';
% 	'7003        ';
% 	'7011        ';
% 	'7012        ';
% 	'7017        ';
% 	'7023        ';
% 	'7024        ';
% 	'7039        ';
% 	'7044        ';
% 	'7049        ';
% 	'7055        ';
% 	'7057        ';
% 	'7061        ';
% 	'7062        ';
% 	'7071        ';
% 	'7130        ';
% 	'7139        ';
% 	'7166        ';
% 	'9001        ';
% 	'9002        ';
% 	'9003        ';
% 	'9004        ';
% 	'9005        ';
% 	'9006        ';
% 	'9007        ';
% 	'9012        ';
% 	'9021        ';
% 	'9022        ';
% 	'9023        ';
% 	'9024        ';
% 	'9025        ';
% 	'9026        ';
% 	'9031        ';
% 	'9032        ';
% 	'9033        ';
% 	'9034        ';
% 	'9035        ';
% 	'9036        ';
% 	'9037        ';
% 	'9038        ';
% 	'9041        ';
% 	'9042        ';
% 	'9043        ';
% 	'9044        ';
% 	'9051        ';
% 	'9052        ';
% 	'9053        ';
% 	'9054        ';
% 	'9055        ';
% 	'9071        ';
% 	'9072        ';
% 	'9121        ';
% 	'9533        ';
% 	'10000       ';
% 	'10001       ';
% 	'10002       ';
% 	'10003       ';
% 	'10004       ';
% 	'10005       ';
% 	'10006       ';
% 	'10007       ';
% 	'10008       ';
% 	'10009       ';
% 	'10010       ';
% 	'10011       ';
% 	'10012       ';
% 	'10013       ';
% 	'10014       ';
% 	'10015       ';
% 	'10016       ';
% 	'10017       ';
% 	'10018       ';
% 	'10019       ';
% 	'10020       ';
% 	'10021       ';
% 	'10022       ';
% 	'10023       ';
% 	'10024       ';
% 	'10025       ';
% 	'10026       ';
% 	'10027       ';
% 	'10028       ';
% 	'10029       ';
% 	'10030       ';
% 	'10031       ';
% 	'10032       ';
% 	'10033       ';
% 	'10034       ';
% 	'10035       ';
% 	'10036       ';
% 	'10037       ';
% 	'10038       ';
% 	'10039       ';
% 	'10040       ';
% 	'10041       ';
% 	'10042       ';
% 	'10043       ';
% 	'10044       ';
% 	'10045       ';
% 	'10046       ';
% 	'10047       ';
% 	'10048       ';
% 	'10049       ';
% 	'10050       ';
% 	'10051       ';
% 	'10052       ';
% 	'10053       ';
% 	'10054       ';
% 	'10055       ';
% 	'10056       ';
% 	'10057       ';
% 	'10058       ';
% 	'10059       ';
% 	'10060       ';
% 	'10061       ';
% 	'10062       ';
% 	'10063       ';
% 	'10064       ';
% 	'10065       ';
% 	'10066       ';
% 	'10067       ';
% 	'10068       ';
% };
%%-----  OPF Data  -----%%
% %% generator cost data
% %	1	startup	shutdown	n	x1	y1	...	xn	yn
% %	2	startup	shutdown	n	c(n-1)	...	c0
% mpc.gencost = [
% 	2	0	0	3	0.01	0.3	0.2;
% 	2	0	0	3	0.01	0.3	0.2;
% 	2	0	0	3	0.01	0.3	0.2;
% 	2	0	0	3	0.01	0.3	0.2;
% 	2	0	0	3	0.01	0.3	0.2;
% 	2	0	0	3	0.01	0.3	0.2;
% 	2	0	0	3	0.01	0.3	0.2;
% 	2	0	0	3	0.01	0.3	0.2;
% 	2	0	0	3	0.01	0.3	0.2;
% 	2	0	0	3	0.01	0.3	0.2;
% ];